<?xml version="1.0" encoding="UTF-8"?>

<!-- generated on 05/16/21 23:43:39 by Eclipse SUMO netedit Version 1.6.0
<configuration xmlns:xsi="http://www.w3.org/2001/XMLSchema-instance" xsi:noNamespaceSchemaLocation="http://sumo.dlr.de/xsd/netconvertConfiguration.xsd">

    <output>
        <output-file value="C:\Users\iracca\src\veins-veins-5.1\examples\veins\emergencyLane.net.xml"/>
    </output>

    <processing>
        <offset.disable-normalization value="true"/>
    </processing>

    <junctions>
        <no-turnarounds value="true"/>
    </junctions>

    <netedit>
        <route-files value="C:\Users\iracca\src\veins-veins-5.1\examples\veins\emergency-lane.rou.xml"/>
    </netedit>

    <report>
        <aggregate-warnings value="5"/>
    </report>

</configuration>
-->

<routes xmlns:xsi="http://www.w3.org/2001/XMLSchema-instance" xsi:noNamespaceSchemaLocation="http://sumo.dlr.de/xsd/routes_file.xsd">
    <vType id="emergency" vClass="emergency" color="255,15,15"/>
    <route edges="gneE0" color="yellow" id="route_0"/>
    <route edges="gneE0" color="yellow" id="route_1"/>
    <vehicle id="vehicle_0" type="emergency" depart="0.00" route="route_0"/>
</routes>
